[root]
type=Root
children=system
eventq_index=0
full_system=false
sim_quantum=0
time_sync_enable=false
time_sync_period=100000000000
time_sync_spin_threshold=100000000

[system]
type=System
children=clk_domain cpu00 cpu01 cpu02 cpu03 cpu04 cpu05 cpu06 cpu07 cpu08 cpu09 cpu10 cpu11 cpu12 cpu13 cpu14 cpu15 cpu16 cpu17 cpu18 cpu19 cpu20 cpu21 cpu22 cpu23 cpu24 cpu25 cpu26 cpu27 cpu28 cpu29 cpu30 cpu31 cpu_clk_domain cpu_voltage_domain dvfs_handler mem_ctrls00 mem_ctrls01 mem_ctrls02 mem_ctrls03 mem_ctrls04 mem_ctrls05 mem_ctrls06 mem_ctrls07 mem_ctrls08 mem_ctrls09 mem_ctrls10 mem_ctrls11 mem_ctrls12 mem_ctrls13 mem_ctrls14 mem_ctrls15 mem_ctrls16 mem_ctrls17 mem_ctrls18 mem_ctrls19 mem_ctrls20 mem_ctrls21 mem_ctrls22 mem_ctrls23 mem_ctrls24 mem_ctrls25 mem_ctrls26 mem_ctrls27 mem_ctrls28 mem_ctrls29 mem_ctrls30 mem_ctrls31 ruby sys_port_proxy voltage_domain
boot_osflags=a
cache_line_size=64
clk_domain=system.clk_domain
default_p_state=UNDEFINED
eventq_index=0
exit_on_work_items=false
init_param=0
kernel=
kernel_addr_check=true
load_addr_mask=1099511627775
load_offset=0
mem_mode=timing
mem_ranges=0:4294967295:0:0:0:0
memories=system.mem_ctrls00 system.mem_ctrls01 system.mem_ctrls02 system.mem_ctrls03 system.mem_ctrls04 system.mem_ctrls05 system.mem_ctrls06 system.mem_ctrls07 system.mem_ctrls08 system.mem_ctrls09 system.mem_ctrls10 system.mem_ctrls11 system.mem_ctrls12 system.mem_ctrls13 system.mem_ctrls14 system.mem_ctrls15 system.mem_ctrls16 system.mem_ctrls17 system.mem_ctrls18 system.mem_ctrls19 system.mem_ctrls20 system.mem_ctrls21 system.mem_ctrls22 system.mem_ctrls23 system.mem_ctrls24 system.mem_ctrls25 system.mem_ctrls26 system.mem_ctrls27 system.mem_ctrls28 system.mem_ctrls29 system.mem_ctrls30 system.mem_ctrls31
mmap_using_noreserve=false
multi_thread=false
num_work_ids=16
p_state_clk_gate_bins=20
p_state_clk_gate_max=1000000000000
p_state_clk_gate_min=1000
power_model=Null
readfile=
symbolfile=
thermal_components=
thermal_model=Null
work_begin_ckpt_count=0
work_begin_cpu_id_exit=-1
work_begin_exit_count=0
work_cpus_ckpt_count=0
work_end_ckpt_count=0
work_end_exit_count=0
work_item_id=-1
system_port=system.sys_port_proxy.slave[0]

[system.clk_domain]
type=SrcClockDomain
clock=1000
domain_id=-1
eventq_index=0
init_perf_level=0
voltage_domain=system.voltage_domain

[system.cpu00]
type=TimingSimpleCPU
children=apic_clk_domain dtb interrupts isa itb tracer workload
branchPred=Null
checker=Null
clk_domain=system.cpu_clk_domain
cpu_id=0
default_p_state=UNDEFINED
do_checkpoint_insts=true
do_quiesce=true
do_statistics_insts=true
dtb=system.cpu00.dtb
eventq_index=0
function_trace=false
function_trace_start=0
interrupts=system.cpu00.interrupts
isa=system.cpu00.isa
itb=system.cpu00.itb
max_insts_all_threads=0
max_insts_any_thread=0
max_loads_all_threads=0
max_loads_any_thread=0
numThreads=1
p_state_clk_gate_bins=20
p_state_clk_gate_max=1000000000000
p_state_clk_gate_min=1000
power_model=Null
profile=0
progress_interval=0
simpoint_start_insts=
socket_id=0
switched_out=false
system=system
tracer=system.cpu00.tracer
workload=system.cpu00.workload
dcache_port=system.ruby.l1_cntrl0.sequencer.slave[1]
icache_port=system.ruby.l1_cntrl0.sequencer.slave[0]

[system.cpu00.apic_clk_domain]
type=DerivedClockDomain
clk_divider=16
clk_domain=system.cpu_clk_domain
eventq_index=0

[system.cpu00.dtb]
type=X86TLB
children=walker
eventq_index=0
size=64
walker=system.cpu00.dtb.walker

[system.cpu00.dtb.walker]
type=X86PagetableWalker
clk_domain=system.cpu_clk_domain
default_p_state=UNDEFINED
eventq_index=0
num_squash_per_cycle=4
p_state_clk_gate_bins=20
p_state_clk_gate_max=1000000000000
p_state_clk_gate_min=1000
power_model=Null
system=system
port=system.ruby.l1_cntrl0.sequencer.slave[4]

[system.cpu00.interrupts]
type=X86LocalApic
clk_domain=system.cpu00.apic_clk_domain
default_p_state=UNDEFINED
eventq_index=0
int_latency=1000
p_state_clk_gate_bins=20
p_state_clk_gate_max=1000000000000
p_state_clk_gate_min=1000
pio_addr=2305843009213693952
pio_latency=100000
power_model=Null
system=system
int_master=system.ruby.l1_cntrl0.sequencer.slave[2]
int_slave=system.ruby.l1_cntrl0.sequencer.master[1]
pio=system.ruby.l1_cntrl0.sequencer.master[0]

[system.cpu00.isa]
type=X86ISA
eventq_index=0

[system.cpu00.itb]
type=X86TLB
children=walker
eventq_index=0
size=64
walker=system.cpu00.itb.walker

[system.cpu00.itb.walker]
type=X86PagetableWalker
clk_domain=system.cpu_clk_domain
default_p_state=UNDEFINED
eventq_index=0
num_squash_per_cycle=4
p_state_clk_gate_bins=20
p_state_clk_gate_max=1000000000000
p_state_clk_gate_min=1000
power_model=Null
system=system
port=system.ruby.l1_cntrl0.sequencer.slave[3]

[system.cpu00.tracer]
type=ExeTracer
eventq_index=0

[system.cpu00.workload]
type=LiveProcess
cmd=/home/subodha/m5thread-gem5/programs/FMM
cwd=/home/subodha/garnet-gem5/mcpat/master_scripts
drivers=
egid=100
env=
errout=cerr
euid=100
eventq_index=0
executable=/home/subodha/m5thread-gem5/programs/FMM
gid=100
input=cin
kvmInSE=false
max_stack_size=67108864
output=cout
pid=100
ppid=99
simpoint=0
system=system
uid=100
useArchPT=false

[system.cpu01]
type=TimingSimpleCPU
children=apic_clk_domain dtb interrupts isa itb tracer
branchPred=Null
checker=Null
clk_domain=system.cpu_clk_domain
cpu_id=1
default_p_state=UNDEFINED
do_checkpoint_insts=true
do_quiesce=true
do_statistics_insts=true
dtb=system.cpu01.dtb
eventq_index=0
function_trace=false
function_trace_start=0
interrupts=system.cpu01.interrupts
isa=system.cpu01.isa
itb=system.cpu01.itb
max_insts_all_threads=0
max_insts_any_thread=0
max_loads_all_threads=0
max_loads_any_thread=0
numThreads=1
p_state_clk_gate_bins=20
p_state_clk_gate_max=1000000000000
p_state_clk_gate_min=1000
power_model=Null
profile=0
progress_interval=0
simpoint_start_insts=
socket_id=0
switched_out=false
system=system
tracer=system.cpu01.tracer
workload=system.cpu00.workload
dcache_port=system.ruby.l1_cntrl1.sequencer.slave[1]
icache_port=system.ruby.l1_cntrl1.sequencer.slave[0]

[system.cpu01.apic_clk_domain]
type=DerivedClockDomain
clk_divider=16
clk_domain=system.cpu_clk_domain
eventq_index=0

[system.cpu01.dtb]
type=X86TLB
children=walker
eventq_index=0
size=64
walker=system.cpu01.dtb.walker

[system.cpu01.dtb.walker]
type=X86PagetableWalker
clk_domain=system.cpu_clk_domain
default_p_state=UNDEFINED
eventq_index=0
num_squash_per_cycle=4
p_state_clk_gate_bins=20
p_state_clk_gate_max=1000000000000
p_state_clk_gate_min=1000
power_model=Null
system=system
port=system.ruby.l1_cntrl1.sequencer.slave[4]

[system.cpu01.interrupts]
type=X86LocalApic
clk_domain=system.cpu01.apic_clk_domain
default_p_state=UNDEFINED
eventq_index=0
int_latency=1000
p_state_clk_gate_bins=20
p_state_clk_gate_max=1000000000000
p_state_clk_gate_min=1000
pio_addr=2305843009213693952
pio_latency=100000
power_model=Null
system=system
int_master=system.ruby.l1_cntrl1.sequencer.slave[2]
int_slave=system.ruby.l1_cntrl1.sequencer.master[1]
pio=system.ruby.l1_cntrl1.sequencer.master[0]

[system.cpu01.isa]
type=X86ISA
eventq_index=0

[system.cpu01.itb]
type=X86TLB
children=walker
eventq_index=0
size=64
walker=system.cpu01.itb.walker

[system.cpu01.itb.walker]
type=X86PagetableWalker
clk_domain=system.cpu_clk_domain
default_p_state=UNDEFINED
eventq_index=0
num_squash_per_cycle=4
p_state_clk_gate_bins=20
p_state_clk_gate_max=1000000000000
p_state_clk_gate_min=1000
power_model=Null
system=system
port=system.ruby.l1_cntrl1.sequencer.slave[3]

[system.cpu01.tracer]
type=ExeTracer
eventq_index=0

[system.cpu02]
type=TimingSimpleCPU
children=apic_clk_domain dtb interrupts isa itb tracer
branchPred=Null
checker=Null
clk_domain=system.cpu_clk_domain
cpu_id=2
default_p_state=UNDEFINED
do_checkpoint_insts=true
do_quiesce=true
do_statistics_insts=true
dtb=system.cpu02.dtb
eventq_index=0
function_trace=false
function_trace_start=0
interrupts=system.cpu02.interrupts
isa=system.cpu02.isa
itb=system.cpu02.itb
max_insts_all_threads=0
max_insts_any_thread=0
max_loads_all_threads=0
max_loads_any_thread=0
numThreads=1
p_state_clk_gate_bins=20
p_state_clk_gate_max=1000000000000
p_state_clk_gate_min=1000
power_model=Null
profile=0
progress_interval=0
simpoint_start_insts=
socket_id=0
switched_out=false
system=system
tracer=system.cpu02.tracer
workload=system.cpu00.workload
dcache_port=system.ruby.l1_cntrl2.sequencer.slave[1]
icache_port=system.ruby.l1_cntrl2.sequencer.slave[0]

[system.cpu02.apic_clk_domain]
type=DerivedClockDomain
clk_divider=16
clk_domain=system.cpu_clk_domain
eventq_index=0

[system.cpu02.dtb]
type=X86TLB
children=walker
eventq_index=0
size=64
walker=system.cpu02.dtb.walker

[system.cpu02.dtb.walker]
type=X86PagetableWalker
clk_domain=system.cpu_clk_domain
default_p_state=UNDEFINED
eventq_index=0
num_squash_per_cycle=4
p_state_clk_gate_bins=20
p_state_clk_gate_max=1000000000000
p_state_clk_gate_min=1000
power_model=Null
system=system
port=system.ruby.l1_cntrl2.sequencer.slave[4]

[system.cpu02.interrupts]
type=X86LocalApic
clk_domain=system.cpu02.apic_clk_domain
default_p_state=UNDEFINED
eventq_index=0
int_latency=1000
p_state_clk_gate_bins=20
p_state_clk_gate_max=1000000000000
p_state_clk_gate_min=1000
pio_addr=2305843009213693952
pio_latency=100000
power_model=Null
system=system
int_master=system.ruby.l1_cntrl2.sequencer.slave[2]
int_slave=system.ruby.l1_cntrl2.sequencer.master[1]
pio=system.ruby.l1_cntrl2.sequencer.master[0]

[system.cpu02.isa]
type=X86ISA
eventq_index=0

[system.cpu02.itb]
type=X86TLB
children=walker
eventq_index=0
size=64
walker=system.cpu02.itb.walker

[system.cpu02.itb.walker]
type=X86PagetableWalker
clk_domain=system.cpu_clk_domain
default_p_state=UNDEFINED
eventq_index=0
num_squash_per_cycle=4
p_state_clk_gate_bins=20
p_state_clk_gate_max=1000000000000
p_state_clk_gate_min=1000
power_model=Null
system=system
port=system.ruby.l1_cntrl2.sequencer.slave[3]

[system.cpu02.tracer]
type=ExeTracer
eventq_index=0

[system.cpu03]
type=TimingSimpleCPU
children=apic_clk_domain dtb interrupts isa itb tracer
branchPred=Null
checker=Null
clk_domain=system.cpu_clk_domain
cpu_id=3
default_p_state=UNDEFINED
do_checkpoint_insts=true
do_quiesce=true
do_statistics_insts=true
dtb=system.cpu03.dtb
eventq_index=0
function_trace=false
function_trace_start=0
interrupts=system.cpu03.interrupts
isa=system.cpu03.isa
itb=system.cpu03.itb
max_insts_all_threads=0
max_insts_any_thread=0
max_loads_all_threads=0
max_loads_any_thread=0
numThreads=1
p_state_clk_gate_bins=20
p_state_clk_gate_max=1000000000000
p_state_clk_gate_min=1000
power_model=Null
profile=0
progress_interval=0
simpoint_start_insts=
socket_id=0
switched_out=false
system=system
tracer=system.cpu03.tracer
workload=system.cpu00.workload
dcache_port=system.ruby.l1_cntrl3.sequencer.slave[1]
icache_port=system.ruby.l1_cntrl3.sequencer.slave[0]

[system.cpu03.apic_clk_domain]
type=DerivedClockDomain
clk_divider=16
clk_domain=system.cpu_clk_domain
eventq_index=0

[system.cpu03.dtb]
type=X86TLB
children=walker
eventq_index=0
size=64
walker=system.cpu03.dtb.walker

[system.cpu03.dtb.walker]
type=X86PagetableWalker
clk_domain=system.cpu_clk_domain
default_p_state=UNDEFINED
eventq_index=0
num_squash_per_cycle=4
p_state_clk_gate_bins=20
p_state_clk_gate_max=1000000000000
p_state_clk_gate_min=1000
power_model=Null
system=system
port=system.ruby.l1_cntrl3.sequencer.slave[4]

[system.cpu03.interrupts]
type=X86LocalApic
clk_domain=system.cpu03.apic_clk_domain
default_p_state=UNDEFINED
eventq_index=0
int_latency=1000
p_state_clk_gate_bins=20
p_state_clk_gate_max=1000000000000
p_state_clk_gate_min=1000
pio_addr=2305843009213693952
pio_latency=100000
power_model=Null
system=system
int_master=system.ruby.l1_cntrl3.sequencer.slave[2]
int_slave=system.ruby.l1_cntrl3.sequencer.master[1]
pio=system.ruby.l1_cntrl3.sequencer.master[0]

[system.cpu03.isa]
type=X86ISA
eventq_index=0

[system.cpu03.itb]
type=X86TLB
children=walker
eventq_index=0
size=64
walker=system.cpu03.itb.walker

[system.cpu03.itb.walker]
type=X86PagetableWalker
clk_domain=system.cpu_clk_domain
default_p_state=UNDEFINED
eventq_index=0
num_squash_per_cycle=4
p_state_clk_gate_bins=20
p_state_clk_gate_max=1000000000000
p_state_clk_gate_min=1000
power_model=Null
system=system
port=system.ruby.l1_cntrl3.sequencer.slave[3]

[system.cpu03.tracer]
type=ExeTracer
eventq_index=0

[system.cpu04]
type=TimingSimpleCPU
children=apic_clk_domain dtb interrupts isa itb tracer
branchPred=Null
checker=Null
clk_domain=system.cpu_clk_domain
cpu_id=4
default_p_state=UNDEFINED
do_checkpoint_insts=true
do_quiesce=true
do_statistics_insts=true
dtb=system.cpu04.dtb
eventq_index=0
function_trace=false
function_trace_start=0
interrupts=system.cpu04.interrupts
isa=system.cpu04.isa
itb=system.cpu04.itb
max_insts_all_threads=0
max_insts_any_thread=0
max_loads_all_threads=0
max_loads_any_thread=0
numThreads=1
p_state_clk_gate_bins=20
p_state_clk_gate_max=1000000000000
p_state_clk_gate_min=1000
power_model=Null
profile=0
progress_interval=0
simpoint_start_insts=
socket_id=0
switched_out=false
system=system
tracer=system.cpu04.tracer
workload=system.cpu00.workload
dcache_port=system.ruby.l1_cntrl4.sequencer.slave[1]
icache_port=system.ruby.l1_cntrl4.sequencer.slave[0]

[system.cpu04.apic_clk_domain]
type=DerivedClockDomain
clk_divider=16
clk_domain=system.cpu_clk_domain
eventq_index=0

[system.cpu04.dtb]
type=X86TLB
children=walker
eventq_index=0
size=64
walker=system.cpu04.dtb.walker

[system.cpu04.dtb.walker]
type=X86PagetableWalker
clk_domain=system.cpu_clk_domain
default_p_state=UNDEFINED
eventq_index=0
num_squash_per_cycle=4
p_state_clk_gate_bins=20
p_state_clk_gate_max=1000000000000
p_state_clk_gate_min=1000
power_model=Null
system=system
port=system.ruby.l1_cntrl4.sequencer.slave[4]

[system.cpu04.interrupts]
type=X86LocalApic
clk_domain=system.cpu04.apic_clk_domain
default_p_state=UNDEFINED
eventq_index=0
int_latency=1000
p_state_clk_gate_bins=20
p_state_clk_gate_max=1000000000000
p_state_clk_gate_min=1000
pio_addr=2305843009213693952
pio_latency=100000
power_model=Null
system=system
int_master=system.ruby.l1_cntrl4.sequencer.slave[2]
int_slave=system.ruby.l1_cntrl4.sequencer.master[1]
pio=system.ruby.l1_cntrl4.sequencer.master[0]

[system.cpu04.isa]
type=X86ISA
eventq_index=0

[system.cpu04.itb]
type=X86TLB
children=walker
eventq_index=0
size=64
walker=system.cpu04.itb.walker

[system.cpu04.itb.walker]
type=X86PagetableWalker
clk_domain=system.cpu_clk_domain
default_p_state=UNDEFINED
eventq_index=0
num_squash_per_cycle=4
p_state_clk_gate_bins=20
p_state_clk_gate_max=1000000000000
p_state_clk_gate_min=1000
power_model=Null
system=system
port=system.ruby.l1_cntrl4.sequencer.slave[3]

[system.cpu04.tracer]
type=ExeTracer
eventq_index=0

[system.cpu05]
type=TimingSimpleCPU
children=apic_clk_domain dtb interrupts isa itb tracer
branchPred=Null
checker=Null
clk_domain=system.cpu_clk_domain
cpu_id=5
default_p_state=UNDEFINED
do_checkpoint_insts=true
do_quiesce=true
do_statistics_insts=true
dtb=system.cpu05.dtb
eventq_index=0
function_trace=false
function_trace_start=0
interrupts=system.cpu05.interrupts
isa=system.cpu05.isa
itb=system.cpu05.itb
max_insts_all_threads=0
max_insts_any_thread=0
max_loads_all_threads=0
max_loads_any_thread=0
numThreads=1
p_state_clk_gate_bins=20
p_state_clk_gate_max=1000000000000
p_state_clk_gate_min=1000
power_model=Null
profile=0
progress_interval=0
simpoint_start_insts=
socket_id=0
switched_out=false
system=system
tracer=system.cpu05.tracer
workload=system.cpu00.workload
dcache_port=system.ruby.l1_cntrl5.sequencer.slave[1]
icache_port=system.ruby.l1_cntrl5.sequencer.slave[0]

[system.cpu05.apic_clk_domain]
type=DerivedClockDomain
clk_divider=16
clk_domain=system.cpu_clk_domain
eventq_index=0

[system.cpu05.dtb]
type=X86TLB
children=walker
eventq_index=0
size=64
walker=system.cpu05.dtb.walker

[system.cpu05.dtb.walker]
type=X86PagetableWalker
clk_domain=system.cpu_clk_domain
default_p_state=UNDEFINED
eventq_index=0
num_squash_per_cycle=4
p_state_clk_gate_bins=20
p_state_clk_gate_max=1000000000000
p_state_clk_gate_min=1000
power_model=Null
system=system
port=system.ruby.l1_cntrl5.sequencer.slave[4]

[system.cpu05.interrupts]
type=X86LocalApic
clk_domain=system.cpu05.apic_clk_domain
default_p_state=UNDEFINED
eventq_index=0
int_latency=1000
p_state_clk_gate_bins=20
p_state_clk_gate_max=1000000000000
p_state_clk_gate_min=1000
pio_addr=2305843009213693952
pio_latency=100000
power_model=Null
system=system
int_master=system.ruby.l1_cntrl5.sequencer.slave[2]
int_slave=system.ruby.l1_cntrl5.sequencer.master[1]
pio=system.ruby.l1_cntrl5.sequencer.master[0]

[system.cpu05.isa]
type=X86ISA
eventq_index=0

[system.cpu05.itb]
type=X86TLB
children=walker
eventq_index=0
size=64
walker=system.cpu05.itb.walker

[system.cpu05.itb.walker]
type=X86PagetableWalker
clk_domain=system.cpu_clk_domain
default_p_state=UNDEFINED
eventq_index=0
num_squash_per_cycle=4
p_state_clk_gate_bins=20
p_state_clk_gate_max=1000000000000
p_state_clk_gate_min=1000
power_model=Null
system=system
port=system.ruby.l1_cntrl5.sequencer.slave[3]

[system.cpu05.tracer]
type=ExeTracer
eventq_index=0

[system.cpu06]
type=TimingSimpleCPU
children=apic_clk_domain dtb interrupts isa itb tracer
branchPred=Null
checker=Null
clk_domain=system.cpu_clk_domain
cpu_id=6
default_p_state=UNDEFINED
do_checkpoint_insts=true
do_quiesce=true
do_statistics_insts=true
dtb=system.cpu06.dtb
eventq_index=0
function_trace=false
function_trace_start=0
interrupts=system.cpu06.interrupts
isa=system.cpu06.isa
itb=system.cpu06.itb
max_insts_all_threads=0
max_insts_any_thread=0
max_loads_all_threads=0
max_loads_any_thread=0
numThreads=1
p_state_clk_gate_bins=20
p_state_clk_gate_max=1000000000000
p_state_clk_gate_min=1000
power_model=Null
profile=0
progress_interval=0
simpoint_start_insts=
socket_id=0
switched_out=false
system=system
tracer=system.cpu06.tracer
workload=system.cpu00.workload
dcache_port=system.ruby.l1_cntrl6.sequencer.slave[1]
icache_port=system.ruby.l1_cntrl6.sequencer.slave[0]

[system.cpu06.apic_clk_domain]
type=DerivedClockDomain
clk_divider=16
clk_domain=system.cpu_clk_domain
eventq_index=0

[system.cpu06.dtb]
type=X86TLB
children=walker
eventq_index=0
size=64
walker=system.cpu06.dtb.walker

[system.cpu06.dtb.walker]
type=X86PagetableWalker
clk_domain=system.cpu_clk_domain
default_p_state=UNDEFINED
eventq_index=0
num_squash_per_cycle=4
p_state_clk_gate_bins=20
p_state_clk_gate_max=1000000000000
p_state_clk_gate_min=1000
power_model=Null
system=system
port=system.ruby.l1_cntrl6.sequencer.slave[4]

[system.cpu06.interrupts]
type=X86LocalApic
clk_domain=system.cpu06.apic_clk_domain
default_p_state=UNDEFINED
eventq_index=0
int_latency=1000
p_state_clk_gate_bins=20
p_state_clk_gate_max=1000000000000
p_state_clk_gate_min=1000
pio_addr=2305843009213693952
pio_latency=100000
power_model=Null
system=system
int_master=system.ruby.l1_cntrl6.sequencer.slave[2]
int_slave=system.ruby.l1_cntrl6.sequencer.master[1]
pio=system.ruby.l1_cntrl6.sequencer.master[0]

[system.cpu06.isa]
type=X86ISA
eventq_index=0

[system.cpu06.itb]
type=X86TLB
children=walker
eventq_index=0
size=64
walker=system.cpu06.itb.walker

[system.cpu06.itb.walker]
type=X86PagetableWalker
clk_domain=system.cpu_clk_domain
default_p_state=UNDEFINED
eventq_index=0
num_squash_per_cycle=4
p_state_clk_gate_bins=20
p_state_clk_gate_max=1000000000000
p_state_clk_gate_min=1000
power_model=Null
system=system
port=system.ruby.l1_cntrl6.sequencer.slave[3]

[system.cpu06.tracer]
type=ExeTracer
eventq_index=0

[system.cpu07]
type=TimingSimpleCPU
children=apic_clk_domain dtb interrupts isa itb tracer
branchPred=Null
checker=Null
clk_domain=system.cpu_clk_domain
cpu_id=7
default_p_state=UNDEFINED
do_checkpoint_insts=true
do_quiesce=true
do_statistics_insts=true
dtb=system.cpu07.dtb
eventq_index=0
function_trace=false
function_trace_start=0
interrupts=system.cpu07.interrupts
isa=system.cpu07.isa
itb=system.cpu07.itb
max_insts_all_threads=0
max_insts_any_thread=0
max_loads_all_threads=0
max_loads_any_thread=0
numThreads=1
p_state_clk_gate_bins=20
p_state_clk_gate_max=1000000000000
p_state_clk_gate_min=1000
power_model=Null
profile=0
progress_interval=0
simpoint_start_insts=
socket_id=0
switched_out=false
system=system
tracer=system.cpu07.tracer
workload=system.cpu00.workload
dcache_port=system.ruby.l1_cntrl7.sequencer.slave[1]
icache_port=system.ruby.l1_cntrl7.sequencer.slave[0]

[system.cpu07.apic_clk_domain]
type=DerivedClockDomain
clk_divider=16
clk_domain=system.cpu_clk_domain
eventq_index=0

[system.cpu07.dtb]
type=X86TLB
children=walker
eventq_index=0
size=64
walker=system.cpu07.dtb.walker

[system.cpu07.dtb.walker]
type=X86PagetableWalker
clk_domain=system.cpu_clk_domain
default_p_state=UNDEFINED
eventq_index=0
num_squash_per_cycle=4
p_state_clk_gate_bins=20
p_state_clk_gate_max=1000000000000
p_state_clk_gate_min=1000
power_model=Null
system=system
port=system.ruby.l1_cntrl7.sequencer.slave[4]

[system.cpu07.interrupts]
type=X86LocalApic
clk_domain=system.cpu07.apic_clk_domain
default_p_state=UNDEFINED
eventq_index=0
int_latency=1000
p_state_clk_gate_bins=20
p_state_clk_gate_max=1000000000000
p_state_clk_gate_min=1000
pio_addr=2305843009213693952
pio_latency=100000
power_model=Null
system=system
int_master=system.ruby.l1_cntrl7.sequencer.slave[2]
int_slave=system.ruby.l1_cntrl7.sequencer.master[1]
pio=system.ruby.l1_cntrl7.sequencer.master[0]

[system.cpu07.isa]
type=X86ISA
eventq_index=0

[system.cpu07.itb]
type=X86TLB
children=walker
eventq_index=0
size=64
walker=system.cpu07.itb.walker

[system.cpu07.itb.walker]
type=X86PagetableWalker
clk_domain=system.cpu_clk_domain
default_p_state=UNDEFINED
eventq_index=0
num_squash_per_cycle=4
p_state_clk_gate_bins=20
p_state_clk_gate_max=1000000000000
p_state_clk_gate_min=1000
power_model=Null
system=system
port=system.ruby.l1_cntrl7.sequencer.slave[3]

[system.cpu07.tracer]
type=ExeTracer
eventq_index=0

[system.cpu08]
type=TimingSimpleCPU
children=apic_clk_domain dtb interrupts isa itb tracer
branchPred=Null
checker=Null
clk_domain=system.cpu_clk_domain
cpu_id=8
default_p_state=UNDEFINED
do_checkpoint_insts=true
do_quiesce=true
do_statistics_insts=true
dtb=system.cpu08.dtb
eventq_index=0
function_trace=false
function_trace_start=0
interrupts=system.cpu08.interrupts
isa=system.cpu08.isa
itb=system.cpu08.itb
max_insts_all_threads=0
max_insts_any_thread=0
max_loads_all_threads=0
max_loads_any_thread=0
numThreads=1
p_state_clk_gate_bins=20
p_state_clk_gate_max=1000000000000
p_state_clk_gate_min=1000
power_model=Null
profile=0
progress_interval=0
simpoint_start_insts=
socket_id=0
switched_out=false
system=system
tracer=system.cpu08.tracer
workload=system.cpu00.workload
dcache_port=system.ruby.l1_cntrl8.sequencer.slave[1]
icache_port=system.ruby.l1_cntrl8.sequencer.slave[0]

[system.cpu08.apic_clk_domain]
type=DerivedClockDomain
clk_divider=16
clk_domain=system.cpu_clk_domain
eventq_index=0

[system.cpu08.dtb]
type=X86TLB
children=walker
eventq_index=0
size=64
walker=system.cpu08.dtb.walker

[system.cpu08.dtb.walker]
type=X86PagetableWalker
clk_domain=system.cpu_clk_domain
default_p_state=UNDEFINED
eventq_index=0
num_squash_per_cycle=4
p_state_clk_gate_bins=20
p_state_clk_gate_max=1000000000000
p_state_clk_gate_min=1000
power_model=Null
system=system
port=system.ruby.l1_cntrl8.sequencer.slave[4]

[system.cpu08.interrupts]
type=X86LocalApic
clk_domain=system.cpu08.apic_clk_domain
default_p_state=UNDEFINED
eventq_index=0
int_latency=1000
p_state_clk_gate_bins=20
p_state_clk_gate_max=1000000000000
p_state_clk_gate_min=1000
pio_addr=2305843009213693952
pio_latency=100000
power_model=Null
system=system
int_master=system.ruby.l1_cntrl8.sequencer.slave[2]
int_slave=system.ruby.l1_cntrl8.sequencer.master[1]
pio=system.ruby.l1_cntrl8.sequencer.master[0]

[system.cpu08.isa]
type=X86ISA
eventq_index=0

[system.cpu08.itb]
type=X86TLB
children=walker
eventq_index=0
size=64
walker=system.cpu08.itb.walker

[system.cpu08.itb.walker]
type=X86PagetableWalker
clk_domain=system.cpu_clk_domain
default_p_state=UNDEFINED
eventq_index=0
num_squash_per_cycle=4
p_state_clk_gate_bins=20
p_state_clk_gate_max=1000000000000
p_state_clk_gate_min=1000
power_model=Null
system=system
port=system.ruby.l1_cntrl8.sequencer.slave[3]

[system.cpu08.tracer]
type=ExeTracer
eventq_index=0

[system.cpu09]
type=TimingSimpleCPU
children=apic_clk_domain dtb interrupts isa itb tracer
branchPred=Null
checker=Null
clk_domain=system.cpu_clk_domain
cpu_id=9
default_p_state=UNDEFINED
do_checkpoint_insts=true
do_quiesce=true
do_statistics_insts=true
dtb=system.cpu09.dtb
eventq_index=0
function_trace=false
function_trace_start=0
interrupts=system.cpu09.interrupts
isa=system.cpu09.isa
itb=system.cpu09.itb
max_insts_all_threads=0
max_insts_any_thread=0
max_loads_all_threads=0
max_loads_any_thread=0
numThreads=1
p_state_clk_gate_bins=20
p_state_clk_gate_max=1000000000000
p_state_clk_gate_min=1000
power_model=Null
profile=0
progress_interval=0
simpoint_start_insts=
socket_id=0
switched_out=false
system=system
tracer=system.cpu09.tracer
workload=system.cpu00.workload
dcache_port=system.ruby.l1_cntrl9.sequencer.slave[1]
icache_port=system.ruby.l1_cntrl9.sequencer.slave[0]

[system.cpu09.apic_clk_domain]
type=DerivedClockDomain
clk_divider=16
clk_domain=system.cpu_clk_domain
eventq_index=0

[system.cpu09.dtb]
type=X86TLB
children=walker
eventq_index=0
size=64
walker=system.cpu09.dtb.walker

[system.cpu09.dtb.walker]
type=X86PagetableWalker
clk_domain=system.cpu_clk_domain
default_p_state=UNDEFINED
eventq_index=0
num_squash_per_cycle=4
p_state_clk_gate_bins=20
p_state_clk_gate_max=1000000000000
p_state_clk_gate_min=1000
power_model=Null
system=system
port=system.ruby.l1_cntrl9.sequencer.slave[4]

[system.cpu09.interrupts]
type=X86LocalApic
clk_domain=system.cpu09.apic_clk_domain
default_p_state=UNDEFINED
eventq_index=0
int_latency=1000
p_state_clk_gate_bins=20
p_state_clk_gate_max=1000000000000
p_state_clk_gate_min=1000
pio_addr=2305843009213693952
pio_latency=100000
power_model=Null
system=system
int_master=system.ruby.l1_cntrl9.sequencer.slave[2]
int_slave=system.ruby.l1_cntrl9.sequencer.master[1]
pio=system.ruby.l1_cntrl9.sequencer.master[0]

[system.cpu09.isa]
type=X86ISA
eventq_index=0

[system.cpu09.itb]
type=X86TLB
children=walker
eventq_index=0
size=64
walker=system.cpu09.itb.walker

[system.cpu09.itb.walker]
type=X86PagetableWalker
clk_domain=system.cpu_clk_domain
default_p_state=UNDEFINED
eventq_index=0
num_squash_per_cycle=4
p_state_clk_gate_bins=20
p_state_clk_gate_max=1000000000000
p_state_clk_gate_min=1000
power_model=Null
system=system
port=system.ruby.l1_cntrl9.sequencer.slave[3]

[system.cpu09.tracer]
type=ExeTracer
eventq_index=0

[system.cpu10]
type=TimingSimpleCPU
children=apic_clk_domain dtb interrupts isa itb tracer
branchPred=Null
checker=Null
clk_domain=system.cpu_clk_domain
cpu_id=10
default_p_state=UNDEFINED
do_checkpoint_insts=true
do_quiesce=true
do_statistics_insts=true
dtb=system.cpu10.dtb
eventq_index=0
function_trace=false
function_trace_start=0
interrupts=system.cpu10.interrupts
isa=system.cpu10.isa
itb=system.cpu10.itb
max_insts_all_threads=0
max_insts_any_thread=0
max_loads_all_threads=0
max_loads_any_thread=0
numThreads=1
p_state_clk_gate_bins=20
p_state_clk_gate_max=1000000000000
p_state_clk_gate_min=1000
power_model=Null
profile=0
progress_interval=0
simpoint_start_insts=
socket_id=0
switched_out=false
system=system
tracer=system.cpu10.tracer
workload=system.cpu00.workload
dcache_port=system.ruby.l1_cntrl10.sequencer.slave[1]
icache_port=system.ruby.l1_cntrl10.sequencer.slave[0]

[system.cpu10.apic_clk_domain]
type=DerivedClockDomain
clk_divider=16
clk_domain=system.cpu_clk_domain
eventq_index=0

[system.cpu10.dtb]
type=X86TLB
children=walker
eventq_index=0
size=64
walker=system.cpu10.dtb.walker

[system.cpu10.dtb.walker]
type=X86PagetableWalker
clk_domain=system.cpu_clk_domain
default_p_state=UNDEFINED
eventq_index=0
num_squash_per_cycle=4
p_state_clk_gate_bins=20
p_state_clk_gate_max=1000000000000
p_state_clk_gate_min=1000
power_model=Null
system=system
port=system.ruby.l1_cntrl10.sequencer.slave[4]

[system.cpu10.interrupts]
type=X86LocalApic
clk_domain=system.cpu10.apic_clk_domain
default_p_state=UNDEFINED
eventq_index=0
int_latency=1000
p_state_clk_gate_bins=20
p_state_clk_gate_max=1000000000000
p_state_clk_gate_min=1000
pio_addr=2305843009213693952
pio_latency=100000
power_model=Null
system=system
int_master=system.ruby.l1_cntrl10.sequencer.slave[2]
int_slave=system.ruby.l1_cntrl10.sequencer.master[1]
pio=system.ruby.l1_cntrl10.sequencer.master[0]

[system.cpu10.isa]
type=X86ISA
eventq_index=0

[system.cpu10.itb]
type=X86TLB
children=walker
eventq_index=0
size=64
walker=system.cpu10.itb.walker

[system.cpu10.itb.walker]
type=X86PagetableWalker
clk_domain=system.cpu_clk_domain
default_p_state=UNDEFINED
eventq_index=0
num_squash_per_cycle=4
p_state_clk_gate_bins=20
p_state_clk_gate_max=1000000000000
p_state_clk_gate_min=1000
power_model=Null
system=system
port=system.ruby.l1_cntrl10.sequencer.slave[3]

[system.cpu10.tracer]
type=ExeTracer
eventq_index=0

[system.cpu11]
type=TimingSimpleCPU
children=apic_clk_domain dtb interrupts isa itb tracer
branchPred=Null
checker=Null
clk_domain=system.cpu_clk_domain
cpu_id=11
default_p_state=UNDEFINED
do_checkpoint_insts=true
do_quiesce=true
do_statistics_insts=true
dtb=system.cpu11.dtb
eventq_index=0
function_trace=false
function_trace_start=0
interrupts=system.cpu11.interrupts
isa=system.cpu11.isa
itb=system.cpu11.itb
max_insts_all_threads=0
max_insts_any_thread=0
max_loads_all_threads=0
max_loads_any_thread=0
numThreads=1
p_state_clk_gate_bins=20
p_state_clk_gate_max=1000000000000
p_state_clk_gate_min=1000
power_model=Null
profile=0
progress_interval=0
simpoint_start_insts=
socket_id=0
switched_out=false
system=system
tracer=system.cpu11.tracer
workload=system.cpu00.workload
dcache_port=system.ruby.l1_cntrl11.sequencer.slave[1]
icache_port=system.ruby.l1_cntrl11.sequencer.slave[0]

[system.cpu11.apic_clk_domain]
type=DerivedClockDomain
clk_divider=16
clk_domain=system.cpu_clk_domain
eventq_index=0

[system.cpu11.dtb]
type=X86TLB